[General]
network = Network
sim-time-limit = 800000s
**.phisicalMachines.param-record-as-scalar = false
**.machine[*].degradation_factor = 0.2
**.cyclicSource.interArrivalTime1 = exponential(400s)
**.cyclicSource.startTime = 2s
**.channel.delay = 3s
**.channel.datarate = 8000bps
**.phisicalMachines = 400
**.virtualMachines = 400
**.mainQueueCapacity = 20
**.uploadQueueCapacity = 60
**.machine[*].serviceTime = 10000s
**.vmDiskSize = exponential(200000B)